[TITLE]


[JUNCTIONS]
;ID              	Elev        	Demand      	Pattern         
 14N36b9         	100.320004  	0           	                	;
 14N36b7         	100.389999  	0           	                	;
 14N36b5         	93.399998   	0           	                	;
 14N36b3         	97.400005   	0.005139    	Z-MONCY1        	;
 14N36b1         	97.400005   	0.001389    	Z-MONCY1        	;
 14N36ae         	72.790001   	0           	                	;
 14N36ad         	110.809996  	0.001583    	Z-MONCY1        	;
 14N36ab         	110.880001  	0.001583    	Z-MONCY1        	;
 14N36a9         	73.580004   	0.014333    	Z-MONCY1        	;
 14N36a7         	125.780002  	0           	                	;
 14N36a5         	79.800001   	0           	                	;
 14N36a2         	129.229996  	0           	                	;
 14N36a1         	108.760000  	0           	                	;
 14N369f         	48.759999   	0.009500    	Z-MONCY1        	;
 14N369d         	55.410002   	0           	                	;
 14N369a         	50.039995   	0.001389    	Z-MONCY1        	;
 14N3699         	74.000002   	0           	                	;
 14N3697         	64.650001   	0           	                	;
 14N3695         	112.929996  	0.076722    	Z-MONCY1        	;
 14N3693         	105.650004  	0           	                	;
 14N3691         	110.880001  	0           	                	;
 14N368f         	114.220001  	0           	                	;
 14N368d         	107.380000  	0.004222    	Z-MONCY1        	;
 14N368b         	109.279996  	0           	                	;
 14N3689         	73.919997   	0           	                	;
 14N3687         	106.189999  	0           	                	;
 14N3685         	108.890001  	0           	                	;
 14N3683         	99.600001   	0           	                	;
 14N3681         	68.520006   	0           	                	;
 14N367f         	65.979994   	0           	                	;
 14N367d         	66.819998   	0           	                	;
 14N367b         	75.930000   	0           	                	;
 14N3679         	85.420002   	0.007194    	Z-MONCY1        	;
 14N3677         	71.609999   	0.120944    	Z-MONCY1        	;
 14N3675         	84.470004   	0           	                	;
 14N3673         	67.659998   	0           	                	;
 14N3671         	72.299994   	0           	                	;
 14N366f         	61.189998   	0           	                	;
 14N366d         	60.489999   	0           	                	;
 14N366b         	61.750001   	0.011722    	Z-MONCY1        	;
 14N3669         	60.680001   	0           	                	;
 14N3667         	87.499996   	0.003194    	Z-MONCY1        	;
 14N3665         	66.000002   	0.004361    	Z-MONCY1        	;
 14N3663         	59.000001   	0           	                	;
 14N3661         	59.000001   	0.020861    	Z-MONCY1        	;
 14N365f         	66.320001   	0.001611    	Z-MONCY1        	;
 14N365d         	51.870000   	0.046806    	Z-MONCY1        	;
 14N365b         	59.049998   	0.000944    	Z-MONCY1        	;
 14N3659         	74.849996   	0.013806    	Z-MONCY1        	;
 14N3657         	129.300001  	0           	                	;
 14N3655         	138.369996  	0           	                	;
 14N3653         	111.930002  	0           	                	;
 14N3651         	96.429999   	0.245833    	Z-MONCY1        	;
 14N364f         	61.010000   	0.015389    	Z-MONCY1        	;
 14N364c         	63.309999   	0.165028    	Z-MONCY1        	;
 14N364b         	109.239998  	0.023972    	Z-MONCY1        	;
 14N3649         	118.059999  	0           	                	;
 14N3647         	102.450004  	0.010833    	Z-MONCY1        	;
 14N3645         	98.609996   	0.417778    	Z-MONCY1        	;
 14N3643         	71.399993   	0           	                	;
 14N3641         	77.300005   	0.005194    	Z-MONCY1        	;
 14N363f         	114.070001  	0           	                	;
 14N363d         	81.930001   	0.020806    	Z-MONCY1        	;
 14N363b         	137.229991  	0           	                	;
 14N3639         	120.270004  	0.021111    	Z-MONCY1        	;
 14N3637         	136.619991  	0           	                	;
 14N3635         	107.269998  	0           	                	;
 14N3632         	102.689998  	0.002611    	Z-MONCY1        	;
 14N3630         	75.529997   	0           	                	;
 14N362f         	72.139999   	0           	                	;
 14N362d         	73.480006   	0           	                	;
 14N362b         	111.940001  	0.006944    	Z-MONCY1        	;
 14N3629         	109.060000  	0.006167    	Z-MONCY1        	;
 14N3627         	116.699999  	0.004611    	Z-MONCY1        	;
 14N3625         	137.149996  	0           	                	;
 14N3623         	102.079998  	0           	                	;
 14N3620         	113.519997  	0.004861    	Z-MONCY1        	;
 14N361f         	135.789996  	0           	                	;
 14N361d         	136.809998  	0           	                	;
 14N361b         	136.050008  	0           	                	;
 14N3619         	136.559995  	0           	                	;
 14N3617         	93.000004   	0.019250    	Z-MONCY1        	;
 14N3615         	83.999996   	0           	                	;
 14N3613         	93.000004   	0           	                	;
 14N3611         	93.000004   	0.019778    	Z-MONCY1        	;
 14N360f         	93.000004   	0           	                	;
 14N360d         	70.500001   	0.000944    	Z-MONCY1        	;
 14N360b         	67.199998   	0           	                	;
 14N3609         	76.000000   	0.005194    	Z-MONCY1        	;
 14N3606         	59.470001   	0.296667    	Z-MONCY1        	;
 14N3605         	57.580000   	0           	                	;
 14N3603         	58.250001   	0           	                	;
 14N3601         	77.379995   	0.005889    	Z-MONCY1        	;
 14N35fe         	55.329998   	0           	                	;
 14N35fd         	52.460001   	0           	                	;
 14N35fb         	58.770002   	0           	                	;
 14N35f9         	59.020000   	0           	                	;
 14N35f7         	78.349996   	0           	                	;
 14N35f5         	117.479997  	0.000083    	Z-MONCY1        	;
 14N35f3         	88.920002   	0           	                	;
 14N35f1         	86.370000   	0           	                	;
 14N35ef         	76.530001   	0           	                	;
 14N35ed         	83.770000   	0           	                	;
 14N35eb         	88.079998   	0.018028    	Z-MONCY1        	;
 14N35e9         	79.440004   	0           	                	;
 14N35e7         	86.140004   	0           	                	;
 14N35e5         	78.070004   	0           	                	;
 14N35e3         	80.629997   	0           	                	;
 14N35e1         	83.999996   	0           	                	;
 14N35df         	88.940001   	0           	                	;
 14N35dd         	82.260000   	0           	                	;
 14N35db         	80.360004   	0           	                	;
 14N35d9         	88.270005   	0.000583    	Z-MONCY1        	;
 14N35d7         	82.790004   	0           	                	;
 14N35d5         	85.369996   	0           	                	;
 14N35d3         	89.589998   	0           	                	;
 14N35d1         	70.360001   	0           	                	;
 14N35cf         	82.670002   	0           	                	;
 14N35cd         	81.099996   	0           	                	;
 14N35cb         	117.580001  	0           	                	;
 14N35c8         	82.680002   	0           	                	;
 14N35c7         	82.520002   	0.009667    	Z-MONCY1        	;
 14N35c5         	82.680002   	0           	                	;
 14N35c3         	82.820003   	0           	                	;
 14N35c1         	85.000000   	0.011750    	Z-MONCY1        	;
 14N35bf         	83.000001   	0           	                	;
 14N35bd         	86.999998   	0.005889    	Z-MONCY1        	;
 14N35bb         	86.999998   	0.032361    	Z-MONCY1        	;
 14N35b9         	69.130006   	0           	                	;
 14N35b7         	59.000001   	0           	                	;
 14N35b5         	58.729999   	0           	                	;
 14N35b3         	58.719995   	0           	                	;
 14N35b1         	52.680001   	0           	                	;
 14N35af         	58.620001   	0           	                	;
 14N35ad         	57.010002   	0           	                	;
 14N35ab         	52.230001   	0           	                	;
 14N35a9         	59.320001   	0           	                	;
 14N35a7         	72.679999   	0.011111    	Z-MONCY1        	;
 14N35a5         	55.940002   	0           	                	;
 14N35a3         	55.490002   	0           	                	;
 14N35a1         	52.080001   	0           	                	;
 14N359f         	52.729998   	0.018889    	Z-MONCY1        	;
 14N359d         	74.090005   	0           	                	;
 14N359b         	54.019999   	0           	                	;
 14N3598         	46.000000   	0.099250    	Z-MONCY1        	;
 14N3597         	59.310001   	0           	                	;
 14N3595         	58.790000   	0           	                	;
 14N3593         	76.910005   	0           	                	;
 14N3591         	70.750000   	0           	                	;
 14N358f         	77.220000   	0           	                	;
 14N358d         	51.980002   	0           	                	;
 14N358b         	77.980005   	0.000056    	Z-MONCY1        	;
 14N3589         	53.160000   	0           	                	;
 14N3587         	58.860001   	0           	                	;
 14N3585         	69.449996   	0           	                	;
 14N3583         	84.070001   	0           	                	;
 14N3581         	68.959998   	0           	                	;
 14N357f         	63.880001   	0.021639    	Z-MONCY1        	;
 14N357d         	69.270002   	0           	                	;
 14N357b         	62.720002   	0           	                	;
 14N3579         	52.060002   	0           	                	;
 14N3577         	58.910002   	0           	                	;
 14N3575         	56.030001   	0           	                	;
 14N3573         	75.789999   	0.001639    	Z-MONCY1        	;
 14N3571         	77.319999   	0.084778    	Z-MONCY1        	;
 14N356f         	53.070001   	0           	                	;
 14N356d         	75.850000   	0.018833    	Z-MONCY1        	;
 14N3569         	75.170000   	0.034861    	Z-MONCY1        	;
 14N3567         	51.230002   	0           	                	;
 14N3565         	52.780000   	0           	                	;
 14N3563         	59.840001   	0           	                	;
 14N3561         	59.640000   	0           	                	;
 14N355f         	63.950001   	0           	                	;
 14N355d         	75.269999   	0           	                	;
 14N355b         	50.650000   	0           	                	;
 14N3559         	71.930003   	0           	                	;
 14N3557         	61.530000   	0           	                	;
 14N3555         	51.550001   	0           	                	;
 14N3553         	62.999999   	0.005833    	Z-MONCY1        	;
 14N3551         	62.999999   	0.014861    	Z-MONCY1        	;
 14N354d         	69.500002   	0.015917    	Z-MONCY1        	;
 14N354b         	60.000001   	0.049778    	Z-MONCY1        	;
 14N3549         	60.000001   	0           	                	;
 14N3547         	60.000001   	0           	                	;
 14N3545         	64.400002   	0.005667    	Z-MONCY1        	;
 14N3543         	64.800001   	0.005667    	Z-MONCY1        	;
 14N3541         	56.990003   	0.000389    	Z-MONCY1        	;
 14N353f         	59.000001   	0           	                	;
 14N353d         	59.000001   	0           	                	;
 14N353b         	58.000002   	0           	                	;
 14N3539         	59.070002   	0           	                	;
 14N3537         	58.000002   	0           	                	;
 14N3535         	51.000002   	0           	                	;
 14N3533         	69.990000   	0           	                	;
 14N3531         	60.279998   	0           	                	;
 14N352f         	60.279998   	0.176278    	Z-MONCY1        	;
 14N352d         	47.999994   	0           	                	;
 14N352a         	46.859999   	0           	                	;
 14N3529         	77.479994   	0           	                	;
 14N3527         	82.700001   	0           	                	;
 14N3525         	81.089997   	0           	                	;
 14N3523         	83.320000   	0           	                	;
 14N3521         	88.430004   	0           	                	;
 14N351f         	117.820005  	0.009194    	Z-MONCY1        	;
 14N351d         	113.170000  	0           	                	;
 14N351b         	69.610000   	0           	                	;
 14N3519         	83.359998   	0           	                	;
 14N3517         	83.199998   	0           	                	;
 14N3515         	84.010004   	0           	                	;
 14N3513         	84.320004   	0           	                	;
 14N3511         	96.830003   	0           	                	;
 14N2963         	97.999996   	0           	                	;
 14N2962         	97.999996   	0.006444    	Z-MONCY1        	;
 14N2961         	97.999996   	0.003278    	Z-MONCY1        	;
 14N2960         	86.000004   	0.766111    	Z-MONCY1        	;
 14N295f         	77.000000   	0.013806    	Z-MONCY1        	;
 14N295e         	77.000000   	0.019333    	Z-MONCY1        	;
 14N295d         	77.000000   	0.001972    	Z-MONCY1        	;
 14N295c         	77.000000   	0           	                	;
 14N295b         	77.000000   	0.019500    	Z-MONCY1        	;
 14N3510         	96.830003   	0           	                	;
 14N2957         	96.830003   	0           	                	;
 14N2956         	96.830003   	0           	                	;
 14N2955         	97.000002   	0.028639    	Z-MONCY1        	;
 14N2954         	95.999998   	0.046861    	Z-MONCY1        	;
 14N2953         	98.800003   	0.008083    	Z-MONCY1        	;
 14N2951         	98.879999   	0.064000    	Z-MONCY1        	;
 14N294f         	79.000003   	0.197361    	Z-MONCY1        	;
 14N294e         	92.819997   	0.016722    	Z-MONCY1        	;
 14N294d         	92.819997   	0.015833    	Z-MONCY1        	;
 14N294c         	92.819997   	0.023833    	Z-MONCY1        	;
 14N294b         	92.819997   	0.012250    	Z-MONCY1        	;
 14N294a         	92.819997   	0.028389    	Z-MONCY1        	;
 14N2949         	92.819997   	0.004417    	Z-MONCY1        	;
 14N2948         	92.819997   	0           	                	;
 14N2947         	92.819997   	0.529444    	Z-MONCY1        	;
 14N2946         	76.499998   	0           	                	;
 14N2945         	76.479994   	0           	                	;
 14N2944         	98.480004   	0.006111    	Z-MONCY1        	;
 14N2943         	97.620001   	0.006111    	Z-MONCY1        	;
 14N3512         	84.320004   	0           	                	;
 14N3514         	84.010004   	0           	                	;
 14N3516         	83.199998   	0           	                	;
 14N3518         	83.359998   	0           	                	;
 14N351a         	69.610000   	0           	                	;
 14N351c         	113.170000  	0           	                	;
 14N351e         	117.820005  	0.009194    	Z-MONCY1        	;
 14N3520         	88.430004   	0           	                	;
 14N3522         	83.320000   	0           	                	;
 14N3524         	81.089997   	0           	                	;
 14N3526         	82.700001   	0           	                	;
 14N3528         	77.479994   	0           	                	;
 14N291e         	97.349999   	0.002444    	Z-MONCY1        	;
 14N291d         	89.410000   	0           	                	;
 14N291c         	89.060003   	0.006194    	Z-MONCY1        	;
 14N291b         	86.259997   	0.033056    	Z-MONCY1        	;
 14N2919         	93.739996   	0           	                	;
 14N2918         	94.130000   	0.045694    	Z-MONCY1        	;
 14N2917         	91.009995   	0.525556    	Z-MONCY1        	;
 14N2916         	96.169997   	0.038194    	Z-MONCY1        	;
 14N2915         	95.409996   	0.214333    	Z-MONCY1        	;
 14N2914         	96.270000   	0.006194    	Z-MONCY1        	;
 14N2913         	95.259996   	0.014361    	Z-MONCY1        	;
 14N2912         	88.490000   	0.001889    	Z-MONCY1        	;
 14N2911         	88.069998   	0.034944    	Z-MONCY1        	;
 14N2910         	88.790001   	0           	                	;
 14N290f         	97.999996   	0.031083    	Z-MONCY1        	;
 14N290e         	98.820002   	0.022528    	Z-MONCY1        	;
 14N290c         	97.679997   	0.004889    	Z-MONCY1        	;
 14N290b         	95.869996   	0.047250    	Z-MONCY1        	;
 14N290a         	96.880000   	0.032389    	Z-MONCY1        	;
 14N2909         	92.329999   	0.217750    	Z-MONCY1        	;
 14N2908         	90.940000   	0.228694    	Z-MONCY1        	;
 14N2907         	94.690003   	0.019028    	Z-MONCY1        	;
 14N2906         	90.699996   	0.016889    	Z-MONCY1        	;
 14N2905         	89.510003   	0.021472    	Z-MONCY1        	;
 14N2904         	89.570000   	0.030694    	Z-MONCY1        	;
 14N2903         	88.819999   	0.043167    	Z-MONCY1        	;
 14N2902         	88.190000   	0.036972    	Z-MONCY1        	;
 14N2901         	88.650000   	0.019417    	Z-MONCY1        	;
 14N2900         	89.190004   	0           	                	;
 14N28ff         	87.720001   	0.007750    	Z-MONCY1        	;
 14N28fe         	89.500004   	0           	                	;
 14N28fd         	88.849997   	0           	                	;
 14N28fc         	87.250002   	0           	                	;
 14N28fb         	86.940002   	0.000333    	Z-MONCY1        	;
 14N28fa         	86.429996   	0.000333    	Z-MONCY1        	;
 14N28f9         	88.190000   	0.036556    	Z-MONCY1        	;
 14N28f8         	87.029997   	0.006528    	Z-MONCY1        	;
 14N28f7         	85.280001   	0.103722    	Z-MONCY1        	;
 14N28f6         	80.609998   	0           	                	;
 14N28f5         	85.000000   	0           	                	;
 14N28f4         	81.000002   	0.056639    	Z-MONCY1        	;
 14N28f3         	95.810000   	0.081944    	Z-MONCY1        	;
 14N28f2         	80.799996   	0.193750    	Z-MONCY1        	;
 14N28f1         	91.370001   	0           	                	;
 14N28f0         	90.979997   	0           	                	;
 14N28ef         	93.960001   	0           	                	;
 14N28ed         	81.369998   	0           	                	;
 14N28ec         	81.000002   	0.082833    	Z-MONCY1        	;
 14N28eb         	82.929996   	0           	                	;
 14N28ea         	86.180002   	0           	                	;
 14N28e9         	83.189999   	0           	                	;
 14N28e8         	83.059997   	0.305556    	Z-MONCY1        	;
 14N28e7         	89.490005   	0           	                	;
 14N28e6         	95.810000   	0.001139    	Z-MONCY1        	;
 14N28e5         	96.820003   	0.047000    	Z-MONCY1        	;
 14N28e3         	93.589996   	0.004083    	Z-MONCY1        	;
 14N28e2         	89.250001   	0.060000    	Z-MONCY1        	;
 14N28e1         	84.240000   	0           	                	;
 14N28e0         	83.930000   	0.013472    	Z-MONCY1        	;
 14N28df         	84.449996   	0.013472    	Z-MONCY1        	;
 14N28dd         	80.580000   	0.056639    	Z-MONCY1        	;
 14N28dc         	82.629996   	0.013389    	Z-MONCY1        	;
 14N28db         	80.960005   	0           	                	;
 14N28da         	84.549999   	0.160222    	Z-MONCY1        	;
 14N28d9         	81.229997   	0           	                	;
 14N28d8         	81.040000   	0           	                	;
 14N28d7         	81.000002   	0           	                	;
 14N28d6         	82.929996   	0           	                	;
 14N28d5         	82.009996   	0.034861    	Z-MONCY1        	;
 14N28d4         	85.649997   	0           	                	;
 14N28d3         	84.269998   	0.043417    	Z-MONCY1        	;
 14N28d2         	84.089999   	0.005472    	Z-MONCY1        	;
 14N28d1         	85.779999   	0           	                	;
 14N28ce         	90.870004   	0           	                	;
 14N28cd         	91.380001   	0.004083    	Z-MONCY1        	;
 14N28cc         	90.089996   	0           	                	;
 14N28cb         	84.480004   	0.160222    	Z-MONCY1        	;
 14N28c9         	82.090001   	0.056139    	Z-MONCY1        	;
 14N28c8         	80.820004   	0.097028    	Z-MONCY1        	;
 14N28c7         	81.079997   	0           	                	;
 14N28c6         	81.140003   	0           	                	;
 14N28c5         	81.160002   	0           	                	;
 14N28c4         	81.140003   	0           	                	;
 14N28c3         	81.529998   	0           	                	;
 14N28c2         	95.170002   	0           	                	;
 14N28c1         	94.380004   	0           	                	;
 14N28c0         	94.080003   	0.047000    	Z-MONCY1        	;
 14N28bf         	93.500002   	0.023500    	Z-MONCY1        	;
 14N28be         	85.779999   	0.001139    	Z-MONCY1        	;
 14N28bd         	85.329998   	0.002194    	Z-MONCY1        	;
 14N28bc         	85.300000   	0.005139    	Z-MONCY1        	;
 14N28bb         	86.729996   	0.040389    	Z-MONCY1        	;
 14N28ba         	84.709999   	0.021944    	Z-MONCY1        	;
 14N28b9         	83.910001   	0.016972    	Z-MONCY1        	;
 14N28b8         	82.919996   	0.038528    	Z-MONCY1        	;
 14N28b7         	82.680002   	0.055500    	Z-MONCY1        	;
 14N28b6         	82.279998   	0           	                	;
 14N28b5         	81.849997   	0           	                	;
 14N28b4         	88.280004   	0.227556    	Z-MONCY1        	;
 14N28b3         	87.590000   	0           	                	;
 14N28b2         	87.939997   	0.287500    	Z-MONCY1        	;
 14N28b1         	86.589996   	0.321667    	Z-MONCY1        	;
 14N28b0         	82.899998   	0.860000    	Z-MONCY1        	;
 14N28af         	83.880003   	0           	                	;
 14N28ae         	83.110003   	0           	                	;
 14N28ad         	83.209997   	0           	                	;
 14N28ac         	83.189999   	0           	                	;
 14N28ab         	83.160000   	0.006528    	Z-MONCY1        	;
 14N28aa         	81.000002   	0.006528    	Z-MONCY1        	;
 14N28a9         	81.000002   	0           	                	;
 14N28a8         	81.930001   	0           	                	;
 14N28a7         	81.659999   	0.148611    	Z-MONCY1        	;
 14N28a6         	82.309997   	0           	                	;
 14N28a5         	80.400002   	0.193750    	Z-MONCY1        	;
 14N28a4         	80.250001   	0           	                	;
 14N28a3         	83.669997   	0.027250    	Z-MONCY1        	;
 14N289f         	83.720003   	0.007333    	Z-MONCY1        	;
 14N289e         	83.900002   	0           	                	;
 14N289d         	83.900002   	0.064806    	Z-MONCY1        	;
 14N289c         	85.189997   	0.226722    	Z-MONCY1        	;
 14N289b         	80.329997   	0           	                	;
 14N289a         	83.430003   	0           	                	;
 14N2898         	83.999996   	0           	                	;
 14N2897         	84.020004   	0           	                	;
 14N2896         	78.570002   	0.841389    	Z-MONCY1        	;
 14N2894         	80.499995   	0.016722    	Z-MONCY1        	;
 14N2893         	79.740005   	0.411111    	Z-MONCY1        	;
 14N2892         	82.250000   	0.109444    	Z-MONCY1        	;
 14N2891         	82.790004   	0           	                	;
 14N2890         	82.840001   	0           	                	;
 14N288f         	80.510004   	0           	                	;
 14N288e         	81.519998   	0.412222    	Z-MONCY1        	;
 14N288d         	82.820003   	0.016972    	Z-MONCY1        	;
 14N288a         	80.080002   	0           	                	;
 14N2889         	78.280001   	0.211889    	Z-MONCY1        	;
 14N2888         	80.530003   	0.030278    	Z-MONCY1        	;
 14N2887         	80.390002   	0.242250    	Z-MONCY1        	;
 14N2886         	84.310005   	0           	                	;
 14N2885         	83.529996   	0.803056    	Z-MONCY1        	;
 14N2884         	82.569999   	0           	                	;
 14N2883         	82.670002   	0           	                	;
 14N2882         	82.479995   	0           	                	;
 14N2881         	81.140003   	0.803056    	Z-MONCY1        	;
 14N2880         	80.350005   	0.161750    	Z-MONCY1        	;
 14N287f         	80.009997   	1.187500    	Z-MONCY1        	;
 14N287e         	78.789998   	0           	                	;
 14N287d         	82.690001   	0.443056    	Z-MONCY1        	;
 14N287c         	79.869997   	0           	                	;
 14N287b         	79.000003   	0.027333    	Z-MONCY1        	;
 14N287a         	79.910004   	0.027333    	Z-MONCY1        	;
 14N2879         	80.179996   	0.137528    	Z-MONCY1        	;
 14N2878         	76.940004   	0           	                	;
 14N2877         	77.029998   	0.092889    	Z-MONCY1        	;
 14N2876         	77.999999   	0.009139    	Z-MONCY1        	;
 14N2875         	75.000001   	0           	                	;
 14N2874         	76.580002   	0.009139    	Z-MONCY1        	;
 14N2873         	80.469997   	0           	                	;
 14N2872         	79.999998   	0.092889    	Z-MONCY1        	;
 14N2870         	72.599999   	0.104472    	Z-MONCY1        	;
 14N286f         	69.790003   	0           	                	;
 14N286e         	69.839995   	0           	                	;
 14N286d         	84.240000   	0           	                	;
 14N286c         	84.030003   	0           	                	;
 14N286b         	83.900002   	0           	                	;
 14N2868         	73.160002   	0.099167    	Z-MONCY1        	;
 14N2867         	77.549994   	0           	                	;
 14N2866         	77.590006   	0           	                	;
 14N2865         	77.449996   	0           	                	;
 14N2864         	77.430002   	0           	                	;
 14N2863         	77.420007   	0           	                	;
 14N2862         	78.349996   	0.026778    	Z-MONCY1        	;
 14N2861         	83.059997   	0           	                	;
 14N2860         	82.040004   	0           	                	;
 14N285f         	82.090001   	0           	                	;
 14N285e         	81.059998   	0           	                	;
 14N285d         	78.590000   	0           	                	;
 14N285c         	78.390003   	0           	                	;
 14N285b         	77.539999   	0           	                	;
 14N285a         	75.959998   	0           	                	;
 14N2859         	72.809995   	0.004500    	Z-MONCY1        	;
 14N2858         	70.500001   	0.006111    	Z-MONCY1        	;
 14N2857         	71.099997   	0.015500    	Z-MONCY1        	;
 14N2856         	71.280000   	0.132472    	Z-MONCY1        	;
 14N2855         	72.790001   	0.116556    	Z-MONCY1        	;
 14N2854         	73.000002   	0.025639    	Z-MONCY1        	;
 14N2853         	70.999999   	0.014278    	Z-MONCY1        	;
 14N2851         	72.400002   	0.002278    	Z-MONCY1        	;
 14N2850         	68.220001   	0           	                	;
 14N284e         	76.510002   	0.091333    	Z-MONCY1        	;
 14N284d         	71.999998   	0           	                	;
 14N284c         	69.999999   	0.132306    	Z-MONCY1        	;
 14N284b         	71.940002   	0.001222    	Z-MONCY1        	;
 14N284a         	69.999999   	0.056306    	Z-MONCY1        	;
 14N2849         	70.999999   	0.003583    	Z-MONCY1        	;
 14N2848         	71.159994   	0.074028    	Z-MONCY1        	;
 14N2847         	71.999998   	0.034028    	Z-MONCY1        	;
 14N2846         	71.330002   	0.020167    	Z-MONCY1        	;
 14N2845         	71.670000   	0.040250    	Z-MONCY1        	;
 14N2842         	69.970001   	0           	                	;
 14N2840         	72.030001   	0.967222    	Z-MONCY1        	;
 14N283f         	72.110001   	0.037222    	Z-MONCY1        	;
 14N283e         	77.000000   	0.014611    	Z-MONCY1        	;
 14N283d         	77.000000   	0.004806    	Z-MONCY1        	;
 14N283c         	75.090005   	0.087167    	Z-MONCY1        	;
 14N283b         	81.389997   	0.803056    	Z-MONCY1        	;
 14N283a         	78.410002   	0.043083    	Z-MONCY1        	;
 14N2839         	82.159996   	0.051250    	Z-MONCY1        	;
 14N2838         	81.570004   	2.383056    	Z-MONCY1        	;
 14N2837         	77.699999   	0           	                	;
 14N2836         	79.079998   	0           	                	;
 14N2835         	82.660003   	0.017639    	Z-MONCY1        	;
 14N2834         	82.779996   	0.038278    	Z-MONCY1        	;
 14N2833         	81.999997   	0.084056    	Z-MONCY1        	;
 14N2832         	78.070004   	0.027583    	Z-MONCY1        	;
 14N2831         	78.280001   	0.025861    	Z-MONCY1        	;